# generated using pymatgen
data_Te2Mo
_symmetry_space_group_name_H-M   'P 1'
_cell_length_a   3.56565456
_cell_length_b   3.56565456
_cell_length_c   14.64777841
_cell_angle_alpha   90.00000000
_cell_angle_beta   90.00000000
_cell_angle_gamma   120.00000000
_symmetry_Int_Tables_number   1
_chemical_formula_structural   Te2Mo
_chemical_formula_sum   'Te4 Mo2'
_cell_volume   161.28015269
_cell_formula_units_Z   2
loop_
 _symmetry_equiv_pos_site_id
 _symmetry_equiv_pos_as_xyz
  1  'x, y, z'
loop_
 _atom_type_symbol
 _atom_type_oxidation_number
  Te2-  -2.0
  Mo4+  4.0
loop_
 _atom_site_type_symbol
 _atom_site_label
 _atom_site_symmetry_multiplicity
 _atom_site_fract_x
 _atom_site_fract_y
 _atom_site_fract_z
 _atom_site_occupancy
  Te2-  Te0  1  0.33333333  0.66666667  0.62782269  1
  Te2-  Te1  1  0.66666667  0.33333333  0.12782269  1
  Te2-  Te2  1  0.66666667  0.33333333  0.37217731  1
  Te2-  Te3  1  0.33333333  0.66666667  0.87217731  1
  Mo4+  Mo4  1  0.33333333  0.66666667  0.25000000  1
  Mo4+  Mo5  1  0.66666667  0.33333333  0.75000000  1
