# generated using pymatgen
data_Ti3C2
_symmetry_space_group_name_H-M   'P 1'
_cell_length_a   3.06660497
_cell_length_b   3.06660497
_cell_length_c   15.11715007
_cell_angle_alpha   90.00000000
_cell_angle_beta   90.00000000
_cell_angle_gamma   120.00000000
_symmetry_Int_Tables_number   1
_chemical_formula_structural   Ti3C2
_chemical_formula_sum   'Ti6 C4'
_cell_volume   123.11648991
_cell_formula_units_Z   2
loop_
 _symmetry_equiv_pos_site_id
 _symmetry_equiv_pos_as_xyz
  1  'x, y, z'
loop_
 _atom_type_symbol
 _atom_type_oxidation_number
  Ti2+  2.0
  Ti3+  3.0
  C4-  -4.0
loop_
 _atom_site_type_symbol
 _atom_site_label
 _atom_site_symmetry_multiplicity
 _atom_site_fract_x
 _atom_site_fract_y
 _atom_site_fract_z
 _atom_site_occupancy
  Ti2+  Ti0  1  0.00000000  0.00000000  0.00000000  1
  Ti2+  Ti1  1  0.00000000  0.00000000  0.50000000  1
  Ti3+  Ti2  1  0.33333333  0.66666667  0.84387771  1
  Ti3+  Ti3  1  0.66666667  0.33333333  0.34387771  1
  Ti3+  Ti4  1  0.66666667  0.33333333  0.15612229  1
  Ti3+  Ti5  1  0.33333333  0.66666667  0.65612229  1
  C4-  C6  1  0.66666667  0.33333333  0.91410376  1
  C4-  C7  1  0.33333333  0.66666667  0.41410376  1
  C4-  C8  1  0.66666667  0.33333333  0.58589624  1
  C4-  C9  1  0.33333333  0.66666667  0.08589624  1
